4
Lattice="3.072 0.0 0.0 -1.536 2.6604300404257955 0.0 0.0 0.0 5.029" Properties=species:S:1:pos:R:3 lattice_type=2H-SiC pbc="T T T"
C        0.00000000       1.77362003       0.00000000
C        1.53600000       0.88681001       2.51450000
Si       0.00000000       1.77362003       1.25725000
Si       1.53600000       0.88681001       3.77175000
